Circuit: * C:\Users\Luca\Dropbox\Università\Progettazione di Sistemi Embedded\PSE_Project\ADC\antialiasing_filter.asc


Date: Tue Jun 17 23:55:05 2014
Total elapsed time: 0.220 seconds.

tnom = 27
temp = 27
method = trap
totiter = 0
traniter = 0
tranpoints = 0
accept = 0
rejected = 0
matrix size = 3
fillins = 0
solver = Normal

