Circuit: * C:\Users\Luca\Dropbox\Università\Progettazione di Sistemi Embedded\PSE_Project\Power_Supply\LTSPICE_PS_SIM\ESD protection\Pmos_ESD_protection.asc

Direct Newton iteration for .op point succeeded.
.step x=1e-012
.step x=1

Date: Tue Jul 15 11:41:32 2014
Total elapsed time: 0.590 seconds.

tnom = 27
temp = 27
method = modified trap
totiter = 3024
traniter = 2991
tranpoints = 1138
accept = 1079
rejected = 63
matrix size = 42
fillins = 26
solver = Normal
Matrix Compiler1: 3.11 KB object code size  0.9/0.4/[0.2]
Matrix Compiler2: off  [0.3]/0.5/0.6


