Circuit: * C:\Users\Luca\Dropbox\Università\Progettazione di Sistemi Embedded\PSE_Project\ADC\AN_MONITOR_antialiasing_RC.asc


Date: Wed Sep 24 12:37:53 2014
Total elapsed time: 0.142 seconds.

tnom = 27
temp = 27
method = trap
totiter = 0
traniter = 0
tranpoints = 0
accept = 0
rejected = 0
matrix size = 3
fillins = 0
solver = Normal

