Circuit: * C:\Users\Luca\Dropbox\Università\Progettazione di Sistemi Embedded\PSE_Project\Power_Supply\NPN_digital_transistor_as_inverter.asc


Date: Wed Jul 02 16:31:48 2014
Total elapsed time: 0.193 seconds.

tnom = 27
temp = 27
method = trap
totiter = 193
traniter = 0
tranpoints = 0
accept = 0
rejected = 0
matrix size = 9
fillins = 0
solver = Normal
Matrix Compiler1: 456 bytes object code size  0.1/0.1/[0.1]
Matrix Compiler2: 667 bytes object code size  0.2/0.1/[0.1]


