Circuit: * C:\Users\Luca\Dropbox\Università\Progettazione di Sistemi Embedded\PSE_Project\Power_Supply\LTSPICE_PS_SIM\ReverseCurrent&TVS_PowerSupplyIn_PMOS.asc


Date: Wed Jul 02 18:54:46 2014
Total elapsed time: 0.154 seconds.

tnom = 27
temp = 27
method = trap
totiter = 2052
traniter = 0
tranpoints = 0
accept = 0
rejected = 0
matrix size = 9
fillins = 4
solver = Normal
Matrix Compiler1: 670 bytes object code size  0.3/0.1/[0.1]
Matrix Compiler2: 749 bytes object code size  0.1/0.2/[0.1]


